# Package activation for the TC1 case.
&PACKAGES
 useDiagnostics = .TRUE.,
 useMYPACKAGE = .TRUE.,
/
