# Package activation for the TC2 case.
&PACKAGES
 useDiagnostics = .TRUE.,
 useMYPACKAGE = .FALSE.,
/
